CE
SY S=1/142
SY R=0.00001
GW 1 2 0*S 0*S 0*S 1*S 3*S 3*S R
GW 2 2 1*S 3*S 3*S 2*S 4*S 4*S R
GW 3 2 2*S 4*S 4*S 3*S 3*S 3*S R
GW 4 2 3*S 3*S 3*S 4*S 5*S 5*S R
GW 5 2 4*S 5*S 5*S 5*S 6*S 6*S R
GW 6 2 5*S 6*S 6*S 6*S 3*S 3*S R
GW 7 2 6*S 3*S 3*S 7*S 7*S 7*S R
GW 8 2 7*S 7*S 7*S 8*S 5*S 5*S R
GW 9 2 8*S 5*S 5*S 9*S 8*S 8*S R
GW 10 2 9*S 8*S 8*S 10*S 9*S 9*S R
GW 11 2 10*S 9*S 9*S 11*S 10*S 10*S R
GE	0
GN	-1
EK
EX	0	1	2	0	1	0	0	'Voltage source (1+j0) at wire 1 segment 2.
FR	0	0	0	0	1420	0
EN
